! GAMESS/VB2000 Test 24.
! This run is an example of a VB2000 run for a closed shell case with
! full localization using $BRILLMASK. The molecule is benzene and the
! VB structures are the 2 Kekule and 3 Dewar structures. It allows
! you to also explore several alternative runs by making small chnages 
! to the data.
!
! The RHF energy is:-
!
! RHF ENERGY IS     -230.1300205664 AFTER   8 ITERATIONS
!
! The VB final energy is:-
!
! ENERGY AND DIFF OF MACROITER    4 =   -229.99812644     -0.00000000
!
! and the 5 structure weights are:-
!
!      2 Kekule            3 Dewar
!  -0.4061 -0.4061  0.1641  0.1641  0.1641
!
! The $BRILLMASK command is the original implementation in that it is 
! followed by the number 30 and then 30 conditions for non-mixing. 
! However, since we want strict localisation to atoms here, we can
! remove all the data after the $BRILLMASK command and the same result
! is obtained, using a new variant of $BRILLMASK.
!
! This test also tests the $CENTROID code, which gives all VB orbital
! centroids and extents by default. Here the $CENTROID option is used 
! to calculate them only for one orbital and then show distances from 
! that atoms and the nighbouring three atoms.
!
 $CONTRL SCFTYP=RHF RUNTYP=ENERGY COORD=UNIQUE 
 NOSYM=1 UNITS=BOHR VBTYP=VB2000 $END
 $SYSTEM TIMLIM=200000 MEMORY=2000000 $END
 $BASIS  GBASIS=STO NGAUSS=6 $END
 $GUESS  GUESS=HUCKEL $END
 $DATA
C6H6 STO-6G
Dnh  6

C       6.00    2.642389499    0.000000000    0.000000000
H       1.00    4.687413116    0.000000000    0.000000000
 $END
 $VB2000
#! VB(6)/STO-6G PRINTALL 
 
Benzene STO-6G test - MP2 geom 
  
0 1
6     1.3211947495        2.2883764328 0.0000000000
6    -1.3211947495        2.2883764328 0.0000000000
6    -2.6423894990        0.0000000000 0.0000000000
6    -1.3211947495       -2.2883764328 0.0000000000
6     1.3211947495       -2.2883764328 0.0000000000
6     2.6423894990        0.0000000000 0.0000000000
1     2.3437065580        4.0594188365 0.0000000000
1    -2.3437065580        4.0594188365 0.0000000000
1    -4.6874131160        0.0000000000 0.0000000000
1    -2.3437065580       -4.0594188365 0.0000000000
1     2.3437065580       -4.0594188365 0.0000000000
1     4.6874131160        0.0000000000 0.0000000000

 $MEMORY
 20000000

 $CMAXCUT
 0.0

 $NOTROT
 1
 1 2

 $MACROITER
 100

 $SCVBSCF
 0.0001,55

 GRPDIM
 15,5

 $AOGROUP
 6
 5,10,15,20,25,30
 2  2  2  2  2  2

 $BRILLMASK
 30
 1,2
 1,3
 1,4
 1,5
 1,6
 2,1
 2,3
 2,4
 2,5
 2,6
 3,1
 3,2
 3,4
 3,5
 3,6
 4,1
 4,2
 4,3
 4,5
 4,6
 5,1
 5,2
 5,3
 5,4
 5,6
 6,1
 6,2
 6,3
 6,4
 6,5

 $ECONV
 7
 
 $02VBSTR
 5
 1 2 3 4 5 6
 2 3 4 5 1 6
 1 2 3 6 4 5
 2 3 1 4 5 6
 3 4 2 5 1 6

 $CENTROID
 orbitals 1
 19
 distances 4
 1 2 6 7
 
 $END

