! GAMESS/VB2000 Test 5.
! This run is the same method and geometry as test 3, but 
! illustrates a larger basis set, including f orbitals which are 
! not possible with the stand-alone VB2000 code.
!
! The final RHF energy is:-
!
! RHF ENERGY IS -76.0495718665 AFTER  10 ITERATIONS
!
! The final VB energy is:-
!
! ENERGY AND DIFF OF MACROITER   11 =    -76.09185529     -0.00000040
!
! and the VB and HF dipole moments are 1.9840 and 2.0944 respectively.
! 
 $CONTRL SCFTYP=RHF COORD=UNIQUE VBTYP=VB2000 $END
 $SYSTEM TIMLIM=20 MEMORY=2000000 $END
 $BASIS GBASIS=N311 NGAUSS=6 NDFUNC=2 NFFUNC=1 NPFUNC=1 $END
 $GUESS  GUESS=HUCKEL $END
 $DATA
Water 6-311G(2df,p) VB2000 Test
C1
O 8.0    0.0000000000    0.0000000000   0.0000000000
H 1.0    0.0000000000   -0.7572153434   0.5865355237
H 1.0    0.0000000000    0.7572153434   0.5865355237
 $END
 $VB2000
#! VB(4)/6-311G(2df,p) PRINTALL

Water

0 1
8    0.0000000000    0.0000000000   0.0000000000
1    0.0000000000   -0.7572153434   0.5865355237
1    0.0000000000    0.7572153434   0.5865355237

 $END

