! GAMESS/VB2000 Test 10.
! This run is a very simple reaction path VB2000 test, that takes water
! from a bent structure up to the linear TS for bending. It is rather
! artificial but runs reasonably quickly. It also illustrates several
! points that have to be taken into consideration in reaction path runs.
! The maximum number if macroiterations almost certainly needs to be
! increased. It is also essential to increase the number of rotations
! using $ROTATION to at least 2 and probably to 3. If these do not give
! convergence you are probably taking too few points on the path, so
! increase the number of points.
!
! The initial Gamess run at the starting bent structure gives the
! final RHF energy:
!
!  RHF ENERGY IS -74.9630286444 AFTER  11 ITERATIONS
!
! The final path is:-
!
! Energy profile
!           1           2           3           4           5           6
!   -75.00340   -74.99796   -74.99109   -74.98306   -74.97413   -74.96457
!           7           8           9          10          11          12
!   -74.95463   -74.94455   -74.93452   -74.92472   -74.91529   -74.90635
!          13          14          15          16          17
!   -74.89806   -74.89061   -74.88413   -74.87879   -74.87484
!
!      1|                                                  
!      2|**                                                
!      3|****                                              
!      4|*******                                           
!      5|***********                                       
!      6|***************                                   
!      7|******************                                
!      8|**********************                            
!      9|**************************                        
!     10|******************************                    
!     11|**********************************                
!     12|*************************************             
!     13|****************************************          
!     14|*******************************************       
!     15|**********************************************    
!     16|************************************************  
!     17|**************************************************
!
! The VB dipole moment is calculated only at the last point and is zero.
!
! A full *.xyz file is punched allowing an animation of the path.
!
 $CONTRL SCFTYP=RHF COORD=UNIQUE VBTYP=VB2000 $END
 $SYSTEM TIMLIM=20 MEMORY=2000000 $END
 $BASIS GBASIS=STO NGAUSS=3 $END
 $GUESS  GUESS=HUCKEL $END
 $DATA
Water STO-3G
C1  
OXYGEN    8.0    0.0000000000    0.0000000000   0.0000000000
HYDROGEN  1.0    0.0000000000   -0.7572153434   0.5865355237
HYDROGEN  1.0    0.0000000000    0.7572153434   0.5865355237
 $END
 $VB2000
#! VB(4)/STO-3G 
 
TEST REACTION MECHANISM: H2O bent to linear
  
0 1
8    0.0000000000    0.0000000000   0.0000000000
1    0.0000000000   -0.7572153434   0.5865355237
1    0.0000000000    0.7572153434   0.5865355237

 $ROTATION
 3

 $MACROITERATION
 30

 $REACTION  
 15,2,3
GEOM2
8    0.0000000000    0.0000000000   0.0000000000
1    0.0000000000   -0.7572153434   0.5865355237
1    0.0000000000    0.7572153434   0.5865355237
GEOM1
8    0.0000000000    0.0000000000   0.0000000000
1    0.0000000000   -1.0000000000   0.0000000000
1    0.0000000000    1.0000000000   0.0000000000

 $XYZFILE

 $END

