! GAMESS/VB2000 Test 4.
! This run is the same as test 3, but illustrates how symmetry 
! can be used to define the data and then switched off. The VB2000
! output is minimised in this case by removing PRINTALL from the 
! VB command line. 
!
! The final RHF energy is:-
!
!  RHF ENERGY IS -74.9630286444 AFTER  11 ITERATIONS
!
! The VB final energy is:-
!
! ENERGY AND DIFF OF MACROITER   10 =    -75.00340210     -0.00000048
!
! and the VB and HF dipole moments are 1.6369 and 1.7253 respectively.
!
! Note that PRINTALL is absent in this case compared with test 3.
!
! The visualisation routines, XYZFILE, MOLEKEL and GENGRID are tested.
!
 $CONTRL SCFTYP=RHF COORD=UNIQUE VBTYP=VB2000
   RUNTYP=ENERGY NOSYM=1 $END
 $SYSTEM TIMLIM=20 MEMORY=2000000 $END
 $BASIS GBASIS=STO NGAUSS=3 $END
 $GUESS  GUESS=HUCKEL $END
 $DATA
Water STO-3G
Cnv   2
  
OXYGEN    8.0    0.0000000000    0.0000000000   0.0000000000
HYDROGEN  1.0    0.0000000000   -0.7572153434   0.5865355237
 $END
 $VB2000
#! VB(4)/STO-3G 
 
Water
  
0 1
8    0.0000000000    0.0000000000   0.0000000000
1    0.0000000000   -0.7572153434   0.5865355237
1    0.0000000000    0.7572153434   0.5865355237

 $MOLEKEL

 $XYZFILE
 Water

 $GENGRID
 4
 4 5 6 7
 WATER cc-pVDZ
 8

 $END

