! GAMESS/VB2000 Test 8.
! This run is similar to test 7, but uses constraints to limit the
! number of variables. Parameter 31 is constrained to be equal to 
! 21. This gives similar results but the two bond lengths are now
! equal.
!
! The geometry is length = 0.968 and the angle is 102.7
!
! The very final VB energy is:
!
! TRUDGE ENERGY VALUE AT NSTEP=  29 IS      -76.0690435929
!
 $CONTRL SCFTYP=RHF VBTYP=VB2000 COORD=HINT
  ISPHER=1 RUNTYP=TRUDGE $END
! ISPHER has to be set to 1 since 2010 version, but
! cartesians are still used for the VB part.
 $SYSTEM TIMLIM=20 MEMORY=2000000 $END
 $GUESS  GUESS=HUCKEL $END
 $BASIS  GBASIS=CCD $END
 $TRUDGE OPTMIZ=GEOMETRY NPAR=2
   IEX(1)=21,32 $END
! Sets 2 variables to optimise - initially 1.0 and 100.0
 $TRURST TOLF=0.0001 TOLR=0.001 FNOISE=0.00001 $END 
! Sets slightly tighter criteria than default.
 $DATA
Water cc-pVDZ VB2000 Test
C1
O  8.0  LC 0.00 0.00  0.00 - O K
H  1.0  PCC 1.00 0.0 0.00 + O K I
H  1.0  PCC 1.00 100.0 0.00 + O K I
 $END
 $VB2000
#! VB(4)/cc-pVDZ PRINTALL 6D

Water

0 1
8    0.0000000000    0.0000000000   0.0000000000
1    0.0000000000   -0.7572153434   0.5865355237
1    0.0000000000    0.7572153434   0.5865355237

 $TRUDGECONSTRAINTS
 1
 31,21

 $END

