! GAMESS/VB2000 Test 17.
! This run is a restart VB2000 run from test 16, but using the full
! extent of macroiterations, as explained in the input file for test 
! 16.
!
! This restart run gives:-
!
! ENERGY AND DIFF OF MACROITER    1 =    -75.00417998    -75.00417998
! ENERGY AND DIFF OF MACROITER    2 =    -75.00418341     -0.00000344
! ENERGY AND DIFF OF MACROITER    3 =    -75.00418493     -0.00000151
! ENERGY AND DIFF OF MACROITER    4 =    -75.00418550     -0.00000057
! ENERGY AND DIFF OF MACROITER    5 =    -75.00418573     -0.00000023
!
! and the HF and VB dipole moments are 1.7253 and 1.6387 respectively. 
!
 $CONTRL SCFTYP=RHF COORD=UNIQUE VBTYP=VB2000 $END
 $SYSTEM TIMLIM=20 MEMORY=2000000 $END
 $BASIS GBASIS=STO NGAUSS=3 $END
 $GUESS  GUESS=HUCKEL $END
 $DATA
Water STO-3G
C1  
OXYGEN    8.0    0.0000000000    0.0000000000   0.0000000000
HYDROGEN  1.0    0.0000000000   -0.7572153434   0.5865355237
HYDROGEN  1.0    0.0000000000    0.7572153434   0.5865355237
 $END
 $VB2000
#! SCVB(4)/STO-3G RESTART PRINTALL
 
Water
  
0 1
8    0.0000000000    0.0000000000   0.0000000000
1    0.0000000000   -0.7572153434   0.5865355237
1    0.0000000000    0.7572153434   0.5865355237

 $MACROITERATION
 12

 $RESTARTFILE
 'exam-vb16.V84'

 $END


